* **********************************************
*    PROCESS :  0.5um EE141          (2.5V)   *
*    SPICE MODEL     BSIM3 - V3.1              *
* **********************************************

***************************************************************
*                 NMOS DEVICES MODEL                          *
***************************************************************


.MODEL nmos          NMOS   (LEVEL   = 49
+VERSION = 3.1            TNOM    = 27             TOX     = 9.3E-9
+XJ      = 1.5E-7         NCH     = 1.7E17         VTH0    = 0.55993
+K1      = 0.862703       K2      = -0.0608508     K3      = -5.555079E-3
+K3B     = 1.0395821      W0      = 1E-8           NLX     = 1.489178E-7
+DVT0W   = 0              DVT1W   = 0              DVT2W   = 0
+DVT0    = 0.6612983      DVT1    = 0.3073532      DVT2    = -0.319509
+U0      = 444.3596093    UA      = 1E-13          UB      = 1.823283E-18
+UC      = 4.483351E-11   VSAT    = 1.863313E5     A0      = 1.0515825
+AGS     = 0.101818       B0      = -1.616345E-7   B1      = 1.825553E-7
+KETA    = -0.012541      A1      = 0              A2      = 0.7627846
+RDSW    = 682.3571468    PRWG    = 1.580272E-14   PRWB    = -0.1214566
+WR      = 1              WINT    = 8.856491E-8    LINT    = 8.645015E-8
+DWG     = -2.565098E-9   DWB     = 2.378374E-10   VOFF    = -0.15
+NFACTOR = 2.5            CIT     = 0              CDSC    = 2.4E-4
+CDSCD   = 0              CDSCB   = 0              ETA0    = 0.1184925
+ETAB    = -0.0174234     DSUB    = 0.619509       PCLM    = 0.5791495
+PDIBLC1 = 1.384034E-3    PDIBLC2 = 6.092293E-3    PDIBLCB = -0.0496297
+DROUT   = 0.0486172      PSCBE1  = 3.172344E8     PSCBE2  = 2.448071E-6
+PVAG    = 0.43403        DELTA   = 0.01           RSH     = 4.2
+MOBMOD  = 1              PRT     = 0              UTE     = -1.5
+KT1     = -0.11          KT1L    = 0              KT2     = 0.022
+UA1     = 4.31E-9        UB1     = -7.61E-18      UC1     = -5.6E-11
+AT      = 3.3E4          WL      = 0              WLN     = 1
+WW      = 0              WWN     = 1              WWL     = 0
+LL      = 0              LLN     = 1              LW      = 0
+LWN     = 1              LWL     = 0              CAPMOD  = 2
+XPART   = 0.5            CGDO    = 3.97E-10       CGSO    = 3.97E-10
+CGBO    = 6E-9           CJ      = 8.713239E-4    PB      = 0.8
+MJ      = 0.3797949      CJSW    = 1E-12          PBSW    = 0.8
+MJSW    = 0.91           CJSWG   = 1.64E-10       PBSWG   = 0.8
+MJSWG   = 0.91           CF      = 0              PVTH0   = 0.0126432
+PRDSW   = -49.5154258    PK2     = -7.582087E-3   WKETA   = 7.226568E-4
+LKETA   = 6.826126E-4     )
*
***************************************************************
*                 PMOS DEVICES MODEL                          *
***************************************************************
      
.MODEL pmos PMOS( LEVEL   = 49
+VERSION = 3.1            TNOM    = 27             TOX     = 9.3E-9
+XJ      = 1.5E-7         NCH     = 1.7E17         VTH0    = -0.5120276
+K1      = 0.8798376      K2      = -0.1           K3      = 0.8148838
+K3B     = 3.4148123      W0      = 1E-8           NLX     = 1.694603E-9
+DVT0W   = 0              DVT1W   = 0              DVT2W   = 0
+DVT0    = 1.1340017      DVT1    = 0.4388411      DVT2    = -0.3
+U0      = 129.3440109    UA      = 1.353159E-9    UB      = 1E-21
+UC      = -2.14315E-11   VSAT    = 2E5            A0      = 0.641853
+AGS     = 0.1839547      B0      = 1.4818E-6      B1      = 5E-6
+KETA    = -0.0257963     A1      = 1.618903E-4    A2      = 0.3
+RDSW    = 3E3            PRWG    = -0.0585481     PRWB    = -0.1479456
+WR      = 1              WINT    = 7.328544E-8    LINT    = 1.079868E-7
+DWG     = -2.035547E-9   DWB     = 1.172856E-8    VOFF    = -0.0361606
+NFACTOR = 0.8753188      CIT     = 0              CDSC    = 2.4E-4
+CDSCD   = 0              CDSCB   = 0              ETA0    = 6.451217E-4
+ETAB    = -0.0541124     DSUB    = 0.8717817      PCLM    = 1.4382029
+PDIBLC1 = 0.0485856      PDIBLC2 = 4.068205E-3    PDIBLCB = -0.1
+DROUT   = 0.3182213      PSCBE1  = 7.930928E9     PSCBE2  = 5.932797E-10
+PVAG    = 0.0150916      DELTA   = 0.01           RSH     = 2.8
+MOBMOD  = 1              PRT     = 0              UTE     = -1.5
+KT1     = -0.11          KT1L    = 0              KT2     = 0.022
+UA1     = 4.31E-9        UB1     = -7.61E-18      UC1     = -5.6E-11
+AT      = 3.3E4          WL      = 0              WLN     = 1
+WW      = 0              WWN     = 1              WWL     = 0
+LL      = 0              LLN     = 1              LW      = 0
+LWN     = 1              LWL     = 0              CAPMOD  = 2
+XPART   = 0.5            CGDO    = 4.06E-10       CGSO    = 4.06E-10
+CGBO    = 6E-9           CJ      = 8.818021E-4    PB      = 0.7173111
+MJ      = 0.2225172      CJSW    = 8E-13          PBSW    = 0.5
+MJSW    = 0.999          CJSWG   = 6.4E-11        PBSWG   = 0.5
+MJSWG   = 0.999          CF      = 0              PVTH0   = 5.98016E-3
+PRDSW   = 14.8598424     PK2     = 3.73981E-3     WKETA   = 4.68986E-4
+LKETA   = -1.381024E-4    )
*

.ENDL MOS